*HEADING
cubit(/Users/jekozdon/codes/D2_sbp/meshes/BP1_small_Lx36_V0.inp): 09/05/2018: 10
version: 15.2
**
********************************** P A R T S **********************************
*PART, NAME=Part-Default
**
********************************** N O D E S **********************************
*NODE, NSET=ALLNODES
       1,    0.000000e+00,   -3.600000e+01,    0.000000e+00
       2,    0.000000e+00,   -2.880000e+01,    0.000000e+00
       3,   -7.200000e+00,   -2.880000e+01,    0.000000e+00
       4,   -7.200000e+00,   -3.600000e+01,    0.000000e+00
       5,    0.000000e+00,   -2.160000e+01,    0.000000e+00
       6,   -7.200000e+00,   -2.160000e+01,    0.000000e+00
       7,    0.000000e+00,   -1.440000e+01,    0.000000e+00
       8,   -7.200000e+00,   -1.440000e+01,    0.000000e+00
       9,    0.000000e+00,   -7.200000e+00,    0.000000e+00
      10,   -7.200000e+00,   -7.200000e+00,    0.000000e+00
      11,    0.000000e+00,    0.000000e+00,    0.000000e+00
      12,   -7.200000e+00,    0.000000e+00,    0.000000e+00
      13,   -1.440000e+01,   -2.880000e+01,    0.000000e+00
      14,   -1.440000e+01,   -3.600000e+01,    0.000000e+00
      15,   -1.440000e+01,   -2.160000e+01,    0.000000e+00
      16,   -1.440000e+01,   -1.440000e+01,    0.000000e+00
      17,   -1.440000e+01,   -7.200000e+00,    0.000000e+00
      18,   -1.440000e+01,    0.000000e+00,    0.000000e+00
      19,   -2.160000e+01,   -2.880000e+01,    0.000000e+00
      20,   -2.160000e+01,   -3.600000e+01,    0.000000e+00
** ... 46 like lines cut
**
********************************** E L E M E N T S ****************************
*ELEMENT, TYPE=S4R, ELSET=EB1
       1,       1,       2,       3,       4
       2,       2,       5,       6,       3
       3,       5,       7,       8,       6
       4,       7,       9,      10,       8
       5,       9,      11,      12,      10
       6,       4,       3,      13,      14
       7,       3,       6,      15,      13
       8,       6,       8,      16,      15
       9,       8,      10,      17,      16
      10,      10,      12,      18,      17
      11,      14,      13,      19,      20
      12,      13,      15,      21,      19
      13,      15,      16,      22,      21
      14,      16,      17,      23,      22
      15,      17,      18,      24,      23
      16,      20,      19,      25,      26
      17,      19,      21,      27,      25
      18,      21,      22,      28,      27
      19,      22,      23,      29,      28
      20,      23,      24,      30,      29
** ... 30 like lines cut
**
********************************** S I D E S E T S **********************************
*ELSET, ELSET=SS1_E3
      21,      22,      23,      24,      25,      46,      47,      48,      49,      50
*SURFACE, NAME=SS1
SS1_E3, E3
*ELSET, ELSET=SS2_E2
       5,      10,      15,      20,      25,      30,      35,      40,      45,      50
*ELSET, ELSET=SS2_E4
       1,       6,      11,      16,      21,      26,      31,      36,      41,      46
*SURFACE, NAME=SS2
SS2_E2, E2
SS2_E4, E4
*ELSET, ELSET=SS7_E1
       1,       2,       3,       4,       5,      26,      27,      28,      29,      30
*SURFACE, NAME=SS7
SS7_E1, E1
**
********************************** P R O P E R T I E S ************************
*SHELL SECTION, ELSET=EB1, SECTION INTEGRATION=SIMPSON, MATERIAL=Default-Steel
1.000000e+00
**
*END PART
**
**
**
********************************** E N D   P A R T S **********************************
**
**
********************************** A S S E M B L Y ************************************
**
*ASSEMBLY, NAME=ASSEMBLY1
**
*INSTANCE, NAME=Part-Default_1, PART=Part-Default
*END INSTANCE
**
*END ASSEMBLY
**
**
**
*MATERIAL, NAME = Default-Steel
*ELASTIC, TYPE=ISOTROPIC
2.068000e+05, 2.900000e-01
*DENSITY
7.000000e-06
*CONDUCTIVITY,TYPE=ISO
4.500000e-02
*SPECIFIC HEAT
5.000000e+02
**
**
************************************** H I S T O R Y *************************************
**
*PREPRINT
**
**************************************** S T E P 1 ***************************************
*STEP,INC=100,NAME=Default Set
**
*STATIC
1, 1, 1e-05, 1
**
**
**
**
*END STEP
