*HEADING
cubit(/Users/jekozdon/codes/D2_sbp/meshes/BP1_V1.inp): 08/14/2018: 15:49:49
version: 15.2
**
********************************** P A R T S **********************************
*PART, NAME=Part-Default
**
********************************** N O D E S **********************************
*NODE, NSET=ALLNODES
       1,   -4.000000e+01,   -4.000000e+01,    0.000000e+00
       2,   -4.000000e+01,   -2.000000e+01,    0.000000e+00
       3,   -6.000000e+01,   -2.000000e+01,    0.000000e+00
       4,   -8.000000e+01,   -4.000000e+01,    0.000000e+00
       5,   -8.000000e+01,   -8.000000e+01,    0.000000e+00
       6,   -4.000000e+01,   -8.000000e+01,    0.000000e+00
       7,   -8.000000e+01,    0.000000e+00,    0.000000e+00
       8,   -6.000000e+01,    0.000000e+00,    0.000000e+00
       9,   -2.389009e+01,   -6.389009e+01,    0.000000e+00
      10,   -2.788771e+01,   -5.105736e+01,    0.000000e+00
      11,   -2.000000e+01,   -4.000000e+01,    0.000000e+00
      12,   -1.976011e+01,   -4.926904e+01,    0.000000e+00
      13,   -1.660873e+01,   -5.660873e+01,    0.000000e+00
      14,   -4.000000e+01,    0.000000e+00,    0.000000e+00
      15,   -1.453280e+01,   -4.939887e+01,    0.000000e+00
      16,   -1.484871e+01,   -4.480407e+01,    0.000000e+00
      17,   -1.000000e+01,   -4.000000e+01,    0.000000e+00
      18,   -1.000000e+01,   -4.500000e+01,    0.000000e+00
      19,   -1.000000e+01,   -5.000000e+01,    0.000000e+00
      20,   -9.269038e+00,   -5.976011e+01,    0.000000e+00
** ... 145 like lines cut
**
********************************** E L E M E N T S ****************************
*ELEMENT, TYPE=S4R, ELSET=EB1
       1,       1,       2,       3,       4
       2,       1,       4,       5,       6
       3,       7,       4,       3,       8
       4,       6,       9,      10,       1
       5,      11,       1,      10,      12
       6,      13,      12,      10,       9
       7,      14,       8,       3,       2
       8,      12,      15,      16,      11
       9,      17,      11,      16,      18
      10,      19,      18,      16,      15
      11,      20,      21,      22,      13
      12,      13,       9,      23,      20
      13,       6,      24,      23,       9
      14,      25,      20,      23,      24
      15,      26,      27,      28,      29
      16,      17,      18,      28,      27
      17,      19,      30,      28,      18
      18,      31,      29,      28,      30
      19,      19,      21,      32,      30
      20,      20,      25,      32,      21
** ... 132 like lines cut
**
********************************** S I D E S E T S **********************************
*ELSET, ELSET=SS1_E1
       3
*ELSET, ELSET=SS1_E2
       2
*ELSET, ELSET=SS1_E3
     131
*ELSET, ELSET=SS1_E4
     130
*SURFACE, NAME=SS1
SS1_E1, E1
SS1_E2, E2
SS1_E3, E3
SS1_E4, E4
*ELSET, ELSET=SS2_E1
       7,      13,      26,      28,      33,      67,      77,      80,     103,     130
*ELSET, ELSET=SS2_E2
     131
*ELSET, ELSET=SS2_E3
       2
*ELSET, ELSET=SS2_E4
       3,      25,      68,      79,      85,     100,     136,     143
*SURFACE, NAME=SS2
SS2_E1, E1
SS2_E2, E2
SS2_E3, E3
SS2_E4, E4
*ELSET, ELSET=SS7_E1
      47,      54,      55,      62,      63,      70,     100,     107,     108,     115,
     116,     123
*ELSET, ELSET=SS7_E4
      48,      51,      56,      59,      64,      67,     101,     104,     109,     112,
     117,     120
*SURFACE, NAME=SS7
SS7_E1, E1
SS7_E4, E4
*ELSET, ELSET=SS8_E1
      18,     142,     144,     149
*ELSET, ELSET=SS8_E4
      14,      15,      21,     145
*SURFACE, NAME=SS8
SS8_E1, E1
SS8_E4, E4
**
********************************** P R O P E R T I E S ************************
*SHELL SECTION, ELSET=EB1, SECTION INTEGRATION=SIMPSON, MATERIAL=Default-Steel
1.000000e+00
**
*END PART
**
**
**
********************************** E N D   P A R T S **********************************
**
**
********************************** A S S E M B L Y ************************************
**
*ASSEMBLY, NAME=ASSEMBLY1
**
*INSTANCE, NAME=Part-Default_1, PART=Part-Default
*END INSTANCE
**
*END ASSEMBLY
**
**
**
*MATERIAL, NAME = Default-Steel
*ELASTIC, TYPE=ISOTROPIC
2.068000e+05, 2.900000e-01
*DENSITY
7.000000e-06
*CONDUCTIVITY,TYPE=ISO
4.500000e-02
*SPECIFIC HEAT
5.000000e+02
**
**
************************************** H I S T O R Y *************************************
**
*PREPRINT
**
**************************************** S T E P 1 ***************************************
*STEP,INC=100,NAME=Default Set
**
*STATIC
1, 1, 1e-05, 1
**
**
**
**
*END STEP
