*HEADING
cubit(/Users/jekozdon/codes/D2_sbp/meshes/BP1_V1.inp): 07/18/2018: 11:14:46
version: 15.2
**
********************************** P A R T S **********************************
*PART, NAME=Part-Default
**
********************************** N O D E S **********************************
*NODE, NSET=ALLNODES
       1,   -4.000000e+01,   -4.000000e+01,    0.000000e+00
       2,   -4.000000e+01,   -2.000000e+01,    0.000000e+00
       3,   -5.364173e+01,   -1.709412e+01,    0.000000e+00
       4,   -6.592206e+01,   -3.127920e+01,    0.000000e+00
       5,   -7.000000e+01,    0.000000e+00,    0.000000e+00
       6,   -1.000000e+02,    0.000000e+00,    0.000000e+00
       7,   -1.000000e+02,   -3.333333e+01,    0.000000e+00
       8,   -6.596698e+01,   -6.596698e+01,    0.000000e+00
       9,   -3.127920e+01,   -6.592206e+01,    0.000000e+00
      10,   -1.000000e+02,   -6.666667e+01,    0.000000e+00
      11,   -6.666667e+01,   -1.000000e+02,    0.000000e+00
      12,   -3.333333e+01,   -1.000000e+02,    0.000000e+00
      13,   -1.000000e+02,   -1.000000e+02,    0.000000e+00
      14,    0.000000e+00,   -1.000000e+02,    0.000000e+00
      15,    0.000000e+00,   -7.000000e+01,    0.000000e+00
      16,   -5.500000e+01,    0.000000e+00,    0.000000e+00
      17,    0.000000e+00,   -4.000000e+01,    0.000000e+00
      18,   -2.000000e+01,   -4.000000e+01,    0.000000e+00
      19,   -1.709412e+01,   -5.364173e+01,    0.000000e+00
      20,    0.000000e+00,   -5.500000e+01,    0.000000e+00
** ... 33 like lines cut
**
********************************** E L E M E N T S ****************************
*ELEMENT, TYPE=S4R, ELSET=EB1
       1,       1,       2,       3,       4
       2,       5,       6,       7,       4
       3,       1,       4,       8,       9
       4,       4,       7,      10,       8
       5,       9,       8,      11,      12
       6,       8,      10,      13,      11
       7,      12,      14,      15,       9
       8,       5,       4,       3,      16
       9,      17,      18,      19,      20
      10,       1,       9,      19,      18
      11,      15,      20,      19,       9
      12,      21,      16,       3,       2
      13,      17,      22,      23,      18
      14,      22,      24,      25,      23
      15,      24,      26,      27,      25
      16,      27,      28,      29,      25
      17,      28,      21,       2,      29
      18,      18,      23,      30,       1
      19,      25,      29,      30,      23
      20,       2,       1,      30,      29
** ... 20 like lines cut
**
********************************** S I D E S E T S **********************************
*ELSET, ELSET=SS1_E1
      35
*ELSET, ELSET=SS1_E2
       2,       4,       6
*ELSET, ELSET=SS1_E3
      33,      34
*SURFACE, NAME=SS1
SS1_E1, E1
SS1_E2, E2
SS1_E3, E3
*ELSET, ELSET=SS2_E1
       2,       7,      12,      16,      17,      24,      25,      29
*ELSET, ELSET=SS2_E2
      15,      30,      32,      34,      35
*ELSET, ELSET=SS2_E3
       5,       6
*ELSET, ELSET=SS2_E4
       8,      21,      40
*SURFACE, NAME=SS2
SS2_E1, E1
SS2_E2, E2
SS2_E3, E3
SS2_E4, E4
*ELSET, ELSET=SS3_E1
      11,      30,      37
*ELSET, ELSET=SS3_E2
       7
*ELSET, ELSET=SS3_E4
       9,      38
*SURFACE, NAME=SS3
SS3_E1, E1
SS3_E2, E2
SS3_E4, E4
*ELSET, ELSET=SS7_E1
      13,      14,      15,      21,      22,      23
*SURFACE, NAME=SS7
SS7_E1, E1
**
********************************** P R O P E R T I E S ************************
*SHELL SECTION, ELSET=EB1, SECTION INTEGRATION=SIMPSON, MATERIAL=Default-Steel
1.000000e+00
**
*END PART
**
**
**
********************************** E N D   P A R T S **********************************
**
**
********************************** A S S E M B L Y ************************************
**
*ASSEMBLY, NAME=ASSEMBLY1
**
*INSTANCE, NAME=Part-Default_1, PART=Part-Default
*END INSTANCE
**
*END ASSEMBLY
**
**
**
*MATERIAL, NAME = Default-Steel
*ELASTIC, TYPE=ISOTROPIC
2.068000e+05, 2.900000e-01
*DENSITY
7.000000e-06
*CONDUCTIVITY,TYPE=ISO
4.500000e-02
*SPECIFIC HEAT
5.000000e+02
**
**
************************************** H I S T O R Y *************************************
**
*PREPRINT
**
**************************************** S T E P 1 ***************************************
*STEP,INC=100,NAME=Default Set
**
*STATIC
1, 1, 1e-05, 1
**
**
**
**
*END STEP
