*HEADING
cubit(/Users/jekozdon/codes/D2_sbp/meshes/BP1_V0.inp): 08/15/2018: 10:26:14
version: 15.2
**
********************************** P A R T S **********************************
*PART, NAME=Part-Default
**
********************************** N O D E S **********************************
*NODE, NSET=ALLNODES
       1,    0.000000e+00,    0.000000e+00,    0.000000e+00
       2,   -5.000000e+00,    0.000000e+00,    0.000000e+00
       3,   -5.000000e+00,   -5.000000e+00,    0.000000e+00
       4,    0.000000e+00,   -5.000000e+00,    0.000000e+00
       5,   -1.000000e+01,    0.000000e+00,    0.000000e+00
       6,   -1.000000e+01,   -5.000000e+00,    0.000000e+00
       7,   -1.500000e+01,    0.000000e+00,    0.000000e+00
       8,   -1.500000e+01,   -5.000000e+00,    0.000000e+00
       9,   -2.000000e+01,    0.000000e+00,    0.000000e+00
      10,   -2.000000e+01,   -5.000000e+00,    0.000000e+00
      11,   -2.500000e+01,    0.000000e+00,    0.000000e+00
      12,   -2.500000e+01,   -5.000000e+00,    0.000000e+00
      13,   -3.000000e+01,    0.000000e+00,    0.000000e+00
      14,   -3.000000e+01,   -5.000000e+00,    0.000000e+00
      15,   -3.500000e+01,    0.000000e+00,    0.000000e+00
      16,   -3.500000e+01,   -5.000000e+00,    0.000000e+00
      17,   -4.000000e+01,    0.000000e+00,    0.000000e+00
      18,   -4.000000e+01,   -5.000000e+00,    0.000000e+00
      19,   -4.500000e+01,    0.000000e+00,    0.000000e+00
      20,   -4.500000e+01,   -5.000000e+00,    0.000000e+00
** ... 541 like lines cut
**
********************************** E L E M E N T S ****************************
*ELEMENT, TYPE=S4R, ELSET=EB1
       1,       1,       2,       3,       4
       2,       2,       5,       6,       3
       3,       5,       7,       8,       6
       4,       7,       9,      10,       8
       5,       9,      11,      12,      10
       6,      11,      13,      14,      12
       7,      13,      15,      16,      14
       8,      15,      17,      18,      16
       9,      17,      19,      20,      18
      10,      19,      21,      22,      20
      11,      21,      23,      24,      22
      12,      23,      25,      26,      24
      13,      25,      27,      28,      26
      14,      27,      29,      30,      28
      15,      29,      31,      32,      30
      16,      31,      33,      34,      32
      17,       4,       3,      35,      36
      18,       3,       6,      37,      35
      19,       6,       8,      38,      37
      20,       8,      10,      39,      38
** ... 492 like lines cut
**
********************************** S I D E S E T S **********************************
*ELSET, ELSET=SS1_E2
      16,      32,      48,      64,      80,      96,     112,     128,     144,     160,
     176,     192,     208,     224,     240,     256
*ELSET, ELSET=SS1_E3
     497,     498,     499,     500,     501,     502,     503,     504,     505,     506,
     507,     508,     509,     510,     511,     512
*SURFACE, NAME=SS1
SS1_E2, E2
SS1_E3, E3
*ELSET, ELSET=SS2_E1
       1,       2,       3,       4,       5,       6,       7,       8,       9,      10,
      11,      12,      13,      14,      15,      16
*ELSET, ELSET=SS2_E2
     272,     288,     304,     320,     336,     352,     368,     384,     400,     416,
     432,     448,     464,     480,     496,     512
*ELSET, ELSET=SS2_E3
     241,     242,     243,     244,     245,     246,     247,     248,     249,     250,
     251,     252,     253,     254,     255,     256
*ELSET, ELSET=SS2_E4
     257,     273,     289,     305,     321,     337,     353,     369,     385,     401,
     417,     433,     449,     465,     481,     497
*SURFACE, NAME=SS2
SS2_E1, E1
SS2_E2, E2
SS2_E3, E3
SS2_E4, E4
*ELSET, ELSET=SS7_E1
     257,     258,     259,     260,     261,     262,     263,     264
*ELSET, ELSET=SS7_E4
       1,      17,      33,      49,      65,      81,      97,     113
*SURFACE, NAME=SS7
SS7_E1, E1
SS7_E4, E4
*ELSET, ELSET=SS8_E1
     265,     266,     267,     268,     269,     270,     271,     272
*ELSET, ELSET=SS8_E4
     129,     145,     161,     177,     193,     209,     225,     241
*SURFACE, NAME=SS8
SS8_E1, E1
SS8_E4, E4
**
********************************** P R O P E R T I E S ************************
*SHELL SECTION, ELSET=EB1, SECTION INTEGRATION=SIMPSON, MATERIAL=Default-Steel
1.000000e+00
**
*END PART
**
**
**
********************************** E N D   P A R T S **********************************
**
**
********************************** A S S E M B L Y ************************************
**
*ASSEMBLY, NAME=ASSEMBLY1
**
*INSTANCE, NAME=Part-Default_1, PART=Part-Default
*END INSTANCE
**
*END ASSEMBLY
**
**
**
*MATERIAL, NAME = Default-Steel
*ELASTIC, TYPE=ISOTROPIC
2.068000e+05, 2.900000e-01
*DENSITY
7.000000e-06
*CONDUCTIVITY,TYPE=ISO
4.500000e-02
*SPECIFIC HEAT
5.000000e+02
**
**
************************************** H I S T O R Y *************************************
**
*PREPRINT
**
**************************************** S T E P 1 ***************************************
*STEP,INC=100,NAME=Default Set
**
*STATIC
1, 1, 1e-05, 1
**
**
**
**
*END STEP
