*HEADING
cubit(/Users/jekozdon/codes/D2_sbp/meshes/BP1_small_V0.inp): 08/31/2018: 15:46:5
version: 15.2
**
********************************** P A R T S **********************************
*PART, NAME=Part-Default
**
********************************** N O D E S **********************************
*NODE, NSET=ALLNODES
       1,    0.000000e+00,   -2.400000e+01,    0.000000e+00
       2,    0.000000e+00,   -2.280000e+01,    0.000000e+00
       3,   -1.200000e+00,   -2.280000e+01,    0.000000e+00
       4,   -1.200000e+00,   -2.400000e+01,    0.000000e+00
       5,    0.000000e+00,   -2.160000e+01,    0.000000e+00
       6,   -1.200000e+00,   -2.160000e+01,    0.000000e+00
       7,    0.000000e+00,   -2.040000e+01,    0.000000e+00
       8,   -1.200000e+00,   -2.040000e+01,    0.000000e+00
       9,    0.000000e+00,   -1.920000e+01,    0.000000e+00
      10,   -1.200000e+00,   -1.920000e+01,    0.000000e+00
      11,    0.000000e+00,   -1.800000e+01,    0.000000e+00
      12,   -1.200000e+00,   -1.800000e+01,    0.000000e+00
      13,    0.000000e+00,   -1.680000e+01,    0.000000e+00
      14,   -1.200000e+00,   -1.680000e+01,    0.000000e+00
      15,    0.000000e+00,   -1.560000e+01,    0.000000e+00
      16,   -1.200000e+00,   -1.560000e+01,    0.000000e+00
      17,    0.000000e+00,   -1.440000e+01,    0.000000e+00
      18,   -1.200000e+00,   -1.440000e+01,    0.000000e+00
      19,    0.000000e+00,   -1.320000e+01,    0.000000e+00
      20,   -1.200000e+00,   -1.320000e+01,    0.000000e+00
** ... 841 like lines cut
**
********************************** E L E M E N T S ****************************
*ELEMENT, TYPE=S4R, ELSET=EB1
       1,       1,       2,       3,       4
       2,       2,       5,       6,       3
       3,       5,       7,       8,       6
       4,       7,       9,      10,       8
       5,       9,      11,      12,      10
       6,      11,      13,      14,      12
       7,      13,      15,      16,      14
       8,      15,      17,      18,      16
       9,      17,      19,      20,      18
      10,      19,      21,      22,      20
      11,      21,      23,      24,      22
      12,      23,      25,      26,      24
      13,      25,      27,      28,      26
      14,      27,      29,      30,      28
      15,      29,      31,      32,      30
      16,      31,      33,      34,      32
      17,      33,      35,      36,      34
      18,      35,      37,      38,      36
      19,      37,      39,      40,      38
      20,      39,      41,      42,      40
** ... 780 like lines cut
**
********************************** S I D E S E T S **********************************
*ELSET, ELSET=SS1_E3
     381,     382,     383,     384,     385,     386,     387,     388,     389,     390,
     391,     392,     393,     394,     395,     396,     397,     398,     399,     400,
     781,     782,     783,     784,     785,     786,     787,     788,     789,     790,
     791,     792,     793,     794,     795,     796,     797,     798,     799,     800
*SURFACE, NAME=SS1
SS1_E3, E3
*ELSET, ELSET=SS2_E2
      20,      40,      60,      80,     100,     120,     140,     160,     180,     200,
     220,     240,     260,     280,     300,     320,     340,     360,     380,     400,
     420,     440,     460,     480,     500,     520,     540,     560,     580,     600,
     620,     640,     660,     680,     700,     720,     740,     760,     780,     800
*ELSET, ELSET=SS2_E4
       1,      21,      41,      61,      81,     101,     121,     141,     161,     181,
     201,     221,     241,     261,     281,     301,     321,     341,     361,     381,
     401,     421,     441,     461,     481,     501,     521,     541,     561,     581,
     601,     621,     641,     661,     681,     701,     721,     741,     761,     781
*SURFACE, NAME=SS2
SS2_E2, E2
SS2_E4, E4
*ELSET, ELSET=SS7_E1
       1,       2,       3,       4,       5,       6,       7,       8,       9,      10,
      11,      12,      13,      14,      15,      16,      17,      18,      19,      20,
     401,     402,     403,     404,     405,     406,     407,     408,     409,     410,
     411,     412,     413,     414,     415,     416,     417,     418,     419,     420
*SURFACE, NAME=SS7
SS7_E1, E1
**
********************************** P R O P E R T I E S ************************
*SHELL SECTION, ELSET=EB1, SECTION INTEGRATION=SIMPSON, MATERIAL=Default-Steel
1.000000e+00
**
*END PART
**
**
**
********************************** E N D   P A R T S **********************************
**
**
********************************** A S S E M B L Y ************************************
**
*ASSEMBLY, NAME=ASSEMBLY1
**
*INSTANCE, NAME=Part-Default_1, PART=Part-Default
*END INSTANCE
**
*END ASSEMBLY
**
**
**
*MATERIAL, NAME = Default-Steel
*ELASTIC, TYPE=ISOTROPIC
2.068000e+05, 2.900000e-01
*DENSITY
7.000000e-06
*CONDUCTIVITY,TYPE=ISO
4.500000e-02
*SPECIFIC HEAT
5.000000e+02
**
**
************************************** H I S T O R Y *************************************
**
*PREPRINT
**
**************************************** S T E P 1 ***************************************
*STEP,INC=100,NAME=Default Set
**
*STATIC
1, 1, 1e-05, 1
**
**
**
**
*END STEP
