*HEADING
cubit(/Users/jekozdon/codes/D2_sbp/meshes/BP1_V2.inp): 08/15/2018: 10:26:48
version: 15.2
**
********************************** P A R T S **********************************
*PART, NAME=Part-Default
**
********************************** N O D E S **********************************
*NODE, NSET=ALLNODES
       1,   -4.000000e+01,   -8.000000e+01,    0.000000e+00
       2,   -4.182385e+01,   -6.000000e+01,    0.000000e+00
       3,   -6.041661e+01,   -6.000000e+01,    0.000000e+00
       4,   -8.000000e+01,   -8.000000e+01,    0.000000e+00
       5,   -8.000000e+01,   -4.000000e+01,    0.000000e+00
       6,   -5.943323e+01,   -4.000000e+01,    0.000000e+00
       7,   -3.690570e+01,   -4.000000e+01,    0.000000e+00
       8,   -6.041661e+01,   -2.000000e+01,    0.000000e+00
       9,   -8.000000e+01,    0.000000e+00,    0.000000e+00
      10,   -2.000000e+01,   -8.000000e+01,    0.000000e+00
      11,   -2.106718e+01,   -7.000000e+01,    0.000000e+00
      12,   -3.034793e+01,   -7.000000e+01,    0.000000e+00
      13,   -3.000000e+01,   -6.000000e+01,    0.000000e+00
      14,   -1.874150e+01,   -6.000000e+01,    0.000000e+00
      15,   -2.912707e+01,   -5.000000e+01,    0.000000e+00
      16,   -2.013474e+01,   -4.000000e+01,    0.000000e+00
      17,   -2.079900e+01,   -5.000000e+01,    0.000000e+00
      18,   -2.079900e+01,   -3.000000e+01,    0.000000e+00
      19,   -2.912707e+01,   -3.000000e+01,    0.000000e+00
      20,   -4.182385e+01,   -2.000000e+01,    0.000000e+00
** ... 141 like lines cut
**
********************************** E L E M E N T S ****************************
*ELEMENT, TYPE=S4R, ELSET=EB1
       1,       1,       2,       3,       4
       2,       5,       4,       3,       6
       3,       7,       6,       3,       2
       4,       5,       6,       8,       9
       5,      10,      11,      12,       1
       6,       2,       1,      12,      13
       7,      14,      13,      12,      11
       8,       2,      13,      15,       7
       9,      16,       7,      15,      17
      10,      14,      17,      15,      13
      11,      16,      18,      19,       7
      12,      20,       7,      19,      21
      13,       7,      20,       8,       6
      14,      22,       9,       8,      20
      15,      23,      24,      25,      10
      16,      11,      10,      25,      26
      17,      27,      26,      25,      24
      18,      11,      26,      28,      14
      19,      29,      14,      28,      30
      20,      27,      30,      28,      26
** ... 128 like lines cut
**
********************************** S I D E S E T S **********************************
*ELSET, ELSET=SS1_E1
       2,      88
*ELSET, ELSET=SS1_E4
       4,      75
*SURFACE, NAME=SS1
SS1_E1, E1
SS1_E4, E4
*ELSET, ELSET=SS2_E1
      14,      32,      35,      62,      68,      76,      80,      90,     112,     133
*ELSET, ELSET=SS2_E4
       1,       5,      15,      36,      59,      78,      85,     109,     134,     146
*SURFACE, NAME=SS2
SS2_E1, E1
SS2_E4, E4
*ELSET, ELSET=SS7_E1
      38,      39,      43,      50,     109,     116,     120,     121
*ELSET, ELSET=SS7_E4
      35,      40,      44,      47,     110,     113,     117,     122
*SURFACE, NAME=SS7
SS7_E1, E1
SS7_E4, E4
*ELSET, ELSET=SS8_E1
      54,      55,      59,      66,     125,     132,     136,     137
*ELSET, ELSET=SS8_E4
      51,      56,      60,      63,     126,     129,     133,     138
*SURFACE, NAME=SS8
SS8_E1, E1
SS8_E4, E4
**
********************************** P R O P E R T I E S ************************
*SHELL SECTION, ELSET=EB1, SECTION INTEGRATION=SIMPSON, MATERIAL=Default-Steel
1.000000e+00
**
*END PART
**
**
**
********************************** E N D   P A R T S **********************************
**
**
********************************** A S S E M B L Y ************************************
**
*ASSEMBLY, NAME=ASSEMBLY1
**
*INSTANCE, NAME=Part-Default_1, PART=Part-Default
*END INSTANCE
**
*END ASSEMBLY
**
**
**
*MATERIAL, NAME = Default-Steel
*ELASTIC, TYPE=ISOTROPIC
2.068000e+05, 2.900000e-01
*DENSITY
7.000000e-06
*CONDUCTIVITY,TYPE=ISO
4.500000e-02
*SPECIFIC HEAT
5.000000e+02
**
**
************************************** H I S T O R Y *************************************
**
*PREPRINT
**
**************************************** S T E P 1 ***************************************
*STEP,INC=100,NAME=Default Set
**
*STATIC
1, 1, 1e-05, 1
**
**
**
**
*END STEP
