*HEADING
cubit(/Users/jekozdon/codes/D2_sbp/meshes/BP1_V1.inp): 07/18/2018: 20:13:04
version: 15.2
**
********************************** P A R T S **********************************
*PART, NAME=Part-Default
**
********************************** N O D E S **********************************
*NODE, NSET=ALLNODES
       1,   -4.000000e+01,   -4.000000e+01,    0.000000e+00
       2,   -4.000000e+01,   -2.000000e+01,    0.000000e+00
       3,   -5.364058e+01,   -1.709296e+01,    0.000000e+00
       4,   -6.592174e+01,   -3.127889e+01,    0.000000e+00
       5,   -7.000000e+01,    0.000000e+00,    0.000000e+00
       6,   -1.000000e+02,    0.000000e+00,    0.000000e+00
       7,   -1.000000e+02,   -3.333333e+01,    0.000000e+00
       8,   -6.617766e+01,   -6.613355e+01,    0.000000e+00
       9,   -3.209362e+01,   -6.655856e+01,    0.000000e+00
      10,   -1.000000e+02,   -6.666667e+01,    0.000000e+00
      11,   -6.666667e+01,   -1.000000e+02,    0.000000e+00
      12,   -3.333333e+01,   -1.000000e+02,    0.000000e+00
      13,   -1.000000e+02,   -1.000000e+02,    0.000000e+00
      14,    0.000000e+00,   -1.000000e+02,    0.000000e+00
      15,    0.000000e+00,   -7.000000e+01,    0.000000e+00
      16,   -5.500000e+01,    0.000000e+00,    0.000000e+00
      17,   -2.092682e+01,   -5.662737e+01,    0.000000e+00
      18,   -2.661619e+01,   -4.773956e+01,    0.000000e+00
      19,   -2.000000e+01,   -4.000000e+01,    0.000000e+00
      20,   -1.891085e+01,   -4.657984e+01,    0.000000e+00
** ... 158 like lines cut
**
********************************** E L E M E N T S ****************************
*ELEMENT, TYPE=S4R, ELSET=EB1
       1,       1,       2,       3,       4
       2,       5,       6,       7,       4
       3,       1,       4,       8,       9
       4,       4,       7,      10,       8
       5,       9,       8,      11,      12
       6,       8,      10,      13,      11
       7,      12,      14,      15,       9
       8,       5,       4,       3,      16
       9,       9,      17,      18,       1
      10,      19,       1,      18,      20
      11,      21,      20,      18,      17
      12,      22,      16,       3,       2
      13,      20,      23,      24,      19
      14,      25,      19,      24,      26
      15,      27,      26,      24,      23
      16,      28,      29,      30,      21
      17,      21,      17,      31,      28
      18,       9,      15,      31,      17
      19,      32,      28,      31,      15
      20,      33,      34,      35,      36
** ... 142 like lines cut
**
********************************** S I D E S E T S **********************************
*ELSET, ELSET=SS1_E1
     141
*ELSET, ELSET=SS1_E2
       2,       4,       6
*ELSET, ELSET=SS1_E3
     139,     140
*SURFACE, NAME=SS1
SS1_E1, E1
SS1_E2, E2
SS1_E3, E3
*ELSET, ELSET=SS2_E1
       2,       7,      12,      31,      33,      38,      72,      82,      85,     108,
     135
*ELSET, ELSET=SS2_E2
     136,     138,     140,     141
*ELSET, ELSET=SS2_E3
       5,       6
*ELSET, ELSET=SS2_E4
       8,      30,      73,      84,      90,     105,     146
*SURFACE, NAME=SS2
SS2_E1, E1
SS2_E2, E2
SS2_E3, E3
SS2_E4, E4
*ELSET, ELSET=SS3_E1
      23,     136,     152,     154,     159
*ELSET, ELSET=SS3_E2
       7
*ELSET, ELSET=SS3_E4
      19,      20,      26,     155
*SURFACE, NAME=SS3
SS3_E1, E1
SS3_E2, E2
SS3_E4, E4
*ELSET, ELSET=SS7_E1
      52,      59,      60,      67,      68,      75,     105,     112,     113,     120,
     121,     128
*ELSET, ELSET=SS7_E4
      53,      56,      61,      64,      69,      72,     106,     109,     114,     117,
     122,     125
*SURFACE, NAME=SS7
SS7_E1, E1
SS7_E4, E4
**
********************************** P R O P E R T I E S ************************
*SHELL SECTION, ELSET=EB1, SECTION INTEGRATION=SIMPSON, MATERIAL=Default-Steel
1.000000e+00
**
*END PART
**
**
**
********************************** E N D   P A R T S **********************************
**
**
********************************** A S S E M B L Y ************************************
**
*ASSEMBLY, NAME=ASSEMBLY1
**
*INSTANCE, NAME=Part-Default_1, PART=Part-Default
*END INSTANCE
**
*END ASSEMBLY
**
**
**
*MATERIAL, NAME = Default-Steel
*ELASTIC, TYPE=ISOTROPIC
2.068000e+05, 2.900000e-01
*DENSITY
7.000000e-06
*CONDUCTIVITY,TYPE=ISO
4.500000e-02
*SPECIFIC HEAT
5.000000e+02
**
**
************************************** H I S T O R Y *************************************
**
*PREPRINT
**
**************************************** S T E P 1 ***************************************
*STEP,INC=100,NAME=Default Set
**
*STATIC
1, 1, 1e-05, 1
**
**
**
**
*END STEP
