*HEADING
cubit(/Users/jekozdon/codes/D2_sbp/meshes/branch.inp): 08/22/2018: 16:28:43
version: 15.2
**
********************************** P A R T S **********************************
*PART, NAME=Part-Default
**
********************************** N O D E S **********************************
*NODE, NSET=ALLNODES
       1,    0.000000e+00,    0.000000e+00,    0.000000e+00
       2,   -2.500000e-01,    0.000000e+00,    0.000000e+00
       3,   -2.500000e-01,   -2.000000e-01,    0.000000e+00
       4,    0.000000e+00,   -2.000000e-01,    0.000000e+00
       5,   -5.000000e-01,    0.000000e+00,    0.000000e+00
       6,   -5.000000e-01,   -2.000000e-01,    0.000000e+00
       7,   -7.500000e-01,    0.000000e+00,    0.000000e+00
       8,   -7.500000e-01,   -2.000000e-01,    0.000000e+00
       9,   -1.000000e+00,    0.000000e+00,    0.000000e+00
      10,   -1.000000e+00,   -2.000000e-01,    0.000000e+00
      11,   -2.500000e-01,   -4.000000e-01,    0.000000e+00
      12,    0.000000e+00,   -4.000000e-01,    0.000000e+00
      13,   -5.000000e-01,   -4.000000e-01,    0.000000e+00
      14,   -7.500000e-01,   -4.000000e-01,    0.000000e+00
      15,   -1.000000e+00,   -4.000000e-01,    0.000000e+00
      16,   -2.500000e-01,   -6.000000e-01,    0.000000e+00
      17,    0.000000e+00,   -6.000000e-01,    0.000000e+00
      18,   -5.000000e-01,   -6.000000e-01,    0.000000e+00
      19,   -7.500000e-01,   -6.000000e-01,    0.000000e+00
      20,   -1.000000e+00,   -6.000000e-01,    0.000000e+00
** ... 28 like lines cut
**
********************************** E L E M E N T S ****************************
*ELEMENT, TYPE=S4R, ELSET=EB1
       1,       1,       2,       3,       4
       2,       2,       5,       6,       3
       3,       5,       7,       8,       6
       4,       7,       9,      10,       8
       5,       4,       3,      11,      12
       6,       3,       6,      13,      11
       7,       6,       8,      14,      13
       8,       8,      10,      15,      14
       9,      12,      11,      16,      17
      10,      11,      13,      18,      16
      11,      13,      14,      19,      18
      12,      14,      15,      20,      19
      13,      17,      16,      21,      22
      14,      16,      18,      23,      21
      15,      18,      19,      24,      23
      16,      19,      20,      25,      24
      17,      22,      21,      26,      27
      18,      21,      23,      28,      26
      19,      23,      24,      29,      28
      20,      24,      25,      30,      29
*ELEMENT, TYPE=S4R, ELSET=EB2
      21,       4,      12,      31,      32
      22,      31,      33,      34,      32
      23,      34,       1,       4,      32
*ELEMENT, TYPE=S4R, ELSET=EB3
      24,      12,      17,      35,      31
      25,      17,      22,      36,      35
      26,      22,      27,      37,      36
      27,      31,      35,      38,      33
      28,      35,      36,      39,      38
      29,      36,      37,      40,      39
      30,      33,      38,      41,      42
      31,      38,      39,      43,      41
      32,      39,      40,      44,      43
      33,      42,      41,      45,      46
      34,      41,      43,      47,      45
      35,      43,      44,      48,      47
**
********************************** S I D E S E T S **********************************
*ELSET, ELSET=SS1_E2
       4,       8,      12,      16,      20
*ELSET, ELSET=SS1_E3
      33,      34,      35
*SURFACE, NAME=SS1
SS1_E2, E2
SS1_E3, E3
*ELSET, ELSET=SS2_E1
       1,       2,       3,       4,      23
*ELSET, ELSET=SS2_E2
      22,      26,      29,      32,      35
*ELSET, ELSET=SS2_E3
      17,      18,      19,      20
*ELSET, ELSET=SS2_E4
      30,      33
*SURFACE, NAME=SS2
SS2_E1, E1
SS2_E2, E2
SS2_E3, E3
SS2_E4, E4
*ELSET, ELSET=SS7_E1
      21
*ELSET, ELSET=SS7_E2
      23
*ELSET, ELSET=SS7_E4
       1,       5
*SURFACE, NAME=SS7
SS7_E1, E1
SS7_E2, E2
SS7_E4, E4
*ELSET, ELSET=SS8_E1
      24,      25,      26
*ELSET, ELSET=SS8_E4
       9,      13,      17
*SURFACE, NAME=SS8
SS8_E1, E1
SS8_E4, E4
*ELSET, ELSET=SS9_E1
      22
*ELSET, ELSET=SS9_E2
      21
*ELSET, ELSET=SS9_E4
      24,      27
*SURFACE, NAME=SS9
SS9_E1, E1
SS9_E2, E2
SS9_E4, E4
**
********************************** P R O P E R T I E S ************************
*SHELL SECTION, ELSET=EB1, SECTION INTEGRATION=SIMPSON, MATERIAL=Default-Steel
1.000000e+00
*SHELL SECTION, ELSET=EB2, SECTION INTEGRATION=SIMPSON, MATERIAL=Default-Steel
1.000000e+00
*SHELL SECTION, ELSET=EB3, SECTION INTEGRATION=SIMPSON, MATERIAL=Default-Steel
1.000000e+00
**
*END PART
**
**
**
********************************** E N D   P A R T S **********************************
**
**
********************************** A S S E M B L Y ************************************
**
*ASSEMBLY, NAME=ASSEMBLY1
**
*INSTANCE, NAME=Part-Default_1, PART=Part-Default
*END INSTANCE
**
*END ASSEMBLY
**
**
**
*MATERIAL, NAME = Default-Steel
*ELASTIC, TYPE=ISOTROPIC
2.068000e+05, 2.900000e-01
*DENSITY
7.000000e-06
*CONDUCTIVITY,TYPE=ISO
4.500000e-02
*SPECIFIC HEAT
5.000000e+02
**
**
************************************** H I S T O R Y *************************************
**
*PREPRINT
**
**************************************** S T E P 1 ***************************************
*STEP,INC=100,NAME=Default Set
**
*STATIC
1, 1, 1e-05, 1
**
**
**
**
*END STEP
