*HEADING
cubit(/Users/jekozdon/codes/D2_sbp/meshes/flower_v2.inp): 08/14/2018: 15:49:34
version: 15.2
**
********************************** P A R T S **********************************
*PART, NAME=Part-Default
**
********************************** N O D E S **********************************
*NODE, NSET=ALLNODES
       1,    1.451874e+00,   -4.022193e+00,    0.000000e+00
       2,    3.000000e-01,   -4.000000e+00,    0.000000e+00
       3,    0.000000e+00,   -8.000000e+00,    0.000000e+00
       4,    2.143794e+00,   -5.738089e+00,    0.000000e+00
       5,    1.908346e+00,   -2.378714e+00,    0.000000e+00
       6,    2.000000e-01,   -1.500000e+00,    0.000000e+00
       7,    3.745180e+00,   -3.083087e+00,    0.000000e+00
       8,    1.000000e+00,    0.000000e+00,    0.000000e+00
       9,    6.000000e-01,   -7.500000e-01,    0.000000e+00
      10,    2.169449e+00,   -1.042905e+00,    0.000000e+00
      11,    4.000000e+00,    0.000000e+00,    0.000000e+00
      12,    5.996144e+00,   -2.966470e+00,    0.000000e+00
      13,    6.200000e+00,    0.000000e+00,    0.000000e+00
      14,    4.715035e+00,   -5.590472e+00,    0.000000e+00
      15,    3.000000e+00,   -7.900000e+00,    0.000000e+00
      16,   -1.180430e+00,   -1.063960e+01,    0.000000e+00
      17,    2.055656e+00,   -1.051168e+01,    0.000000e+00
      18,   -2.973348e+00,   -1.292007e+01,    0.000000e+00
      19,    6.213217e-01,   -1.283606e+01,    0.000000e+00
      20,   -5.000000e+00,   -1.500000e+01,    0.000000e+00
** ... 65 like lines cut
**
********************************** E L E M E N T S ****************************
*ELEMENT, TYPE=S4R, ELSET=EB1
       1,       1,       2,       3,       4
       2,       5,       6,       2,       1
       3,       5,       1,       4,       7
       4,       8,       9,      10,      11
       5,       6,       5,      10,       9
       6,       7,      11,      10,       5
       7,      11,       7,      12,      13
       8,       7,       4,      14,      12
       9,       4,       3,      15,      14
      10,       3,      16,      17,      15
      11,      16,      18,      19,      17
      12,      18,      20,      21,      19
      13,      13,      12,      22,      23
      14,      12,      14,      24,      22
      15,      14,      15,      25,      24
      16,      15,      17,      26,      25
      17,      17,      19,      27,      26
      18,      19,      21,      28,      27
      19,      23,      22,      29,      30
      20,      22,      24,      31,      29
** ... 47 like lines cut
**
********************************** S I D E S E T S **********************************
*ELSET, ELSET=SS1_E1
      40,      41,      42,      43,      44,      45
*ELSET, ELSET=SS1_E3
      31,      32,      33,      34,      35,      36
*SURFACE, NAME=SS1
SS1_E1, E1
SS1_E3, E3
*ELSET, ELSET=SS2_E1
      46,      47,      60,      67
*ELSET, ELSET=SS2_E2
      12,      18,      24,      30,      36,      39,      45,      58,      64,      66
*ELSET, ELSET=SS2_E3
      57
*ELSET, ELSET=SS2_E4
       4,       7,      13,      19,      25,      31,      40
*SURFACE, NAME=SS2
SS2_E1, E1
SS2_E2, E2
SS2_E3, E3
SS2_E4, E4
*ELSET, ELSET=SS7_E1
       4,       6,       7,       8,       9,      10,      11,      12,      37,      38,
      39,      48,      49,      50,      62,      63,      64,      65,      66
*ELSET, ELSET=SS7_E2
       1,       2,      50,      57,      60,      61,      62,      65,      67
*ELSET, ELSET=SS7_E3
       1,       3,      37,      38,      39,      56
*ELSET, ELSET=SS7_E4
       5,      37
*SURFACE, NAME=SS7
SS7_E1, E1
SS7_E2, E2
SS7_E3, E3
SS7_E4, E4
**
********************************** P R O P E R T I E S ************************
*SHELL SECTION, ELSET=EB1, SECTION INTEGRATION=SIMPSON, MATERIAL=Default-Steel
1.000000e+00
**
*END PART
**
**
**
********************************** E N D   P A R T S **********************************
**
**
********************************** A S S E M B L Y ************************************
**
*ASSEMBLY, NAME=ASSEMBLY1
**
*INSTANCE, NAME=Part-Default_1, PART=Part-Default
*END INSTANCE
**
*END ASSEMBLY
**
**
**
*MATERIAL, NAME = Default-Steel
*ELASTIC, TYPE=ISOTROPIC
2.068000e+05, 2.900000e-01
*DENSITY
7.000000e-06
*CONDUCTIVITY,TYPE=ISO
4.500000e-02
*SPECIFIC HEAT
5.000000e+02
**
**
************************************** H I S T O R Y *************************************
**
*PREPRINT
**
**************************************** S T E P 1 ***************************************
*STEP,INC=100,NAME=Default Set
**
*STATIC
1, 1, 1e-05, 1
**
**
**
**
*END STEP
