*HEADING
cubit(/Users/jekozdon/codes/D2_sbp/meshes/flower.inp): 07/20/2018: 14:32:29
version: 15.2
**
********************************** P A R T S **********************************
*PART, NAME=Part-Default
**
********************************** N O D E S **********************************
*NODE, NSET=ALLNODES
       1,    2.000000e+00,   -9.000000e+00,    0.000000e+00
       2,    4.000000e+00,   -8.000000e+00,    0.000000e+00
       3,    3.250000e+00,   -5.500000e+00,    0.000000e+00
       4,    1.750000e+00,   -6.833333e+00,    0.000000e+00
       5,    2.500000e+00,   -3.000000e+00,    0.000000e+00
       6,   -7.771561e-16,   -6.000000e+00,    0.000000e+00
       7,    4.884981e-15,   -1.000000e+01,    0.000000e+00
       8,   -3.996803e-15,   -1.200000e+01,    0.000000e+00
       9,    2.211399e+00,   -1.155439e+01,    0.000000e+00
      10,    0.000000e+00,   -1.500000e+01,    0.000000e+00
      11,    2.500000e+00,   -1.500000e+01,    0.000000e+00
      12,    4.445771e+00,   -1.114522e+01,    0.000000e+00
      13,    5.000000e+00,   -1.500000e+01,    0.000000e+00
      14,    7.236495e+00,   -1.159415e+01,    0.000000e+00
      15,    7.000000e+00,   -8.500000e+00,    0.000000e+00
      16,    7.500000e+00,   -1.500000e+01,    0.000000e+00
      17,    1.000000e+01,   -1.200000e+01,    0.000000e+00
      18,    1.000000e+01,   -9.000000e+00,    0.000000e+00
      19,    1.000000e+01,   -1.500000e+01,    0.000000e+00
      20,    1.000000e+01,   -6.000000e+00,    0.000000e+00
** ... 48 like lines cut
**
********************************** E L E M E N T S ****************************
*ELEMENT, TYPE=S4R, ELSET=EB1
       1,       1,       2,       3,       4
       2,       3,       5,       6,       4
       3,       6,       7,       1,       4
       4,       7,       8,       9,       1
       5,       8,      10,      11,       9
       6,       1,       9,      12,       2
       7,       9,      11,      13,      12
       8,       2,      12,      14,      15
       9,      12,      13,      16,      14
      10,      15,      14,      17,      18
      11,      14,      16,      19,      17
      12,      18,      20,      21,      15
      13,      20,      22,      23,      21
      14,      22,      24,      25,      23
      15,      15,      21,      26,       2
      16,      21,      23,      27,      26
      17,      23,      25,      28,      27
      18,      29,       3,       2,      26
      19,      30,       5,       3,      29
      20,      30,      29,      26,      27
** ... 33 like lines cut
**
********************************** S I D E S E T S **********************************
*ELSET, ELSET=SS1_E1
      12,      13,      14
*ELSET, ELSET=SS1_E2
      25,      28,      31,      34,      37,      40
*ELSET, ELSET=SS1_E3
      10,      11
*SURFACE, NAME=SS1
SS1_E1, E1
SS1_E2, E2
SS1_E3, E3
*ELSET, ELSET=SS2_E1
      23,      24,      25,      49
*ELSET, ELSET=SS2_E2
       5,       7,       9,      11,      14,      17,      51,      53
*ELSET, ELSET=SS2_E3
      38,      39,      40
*ELSET, ELSET=SS2_E4
      21,      46
*SURFACE, NAME=SS2
SS2_E1, E1
SS2_E2, E2
SS2_E3, E3
SS2_E4, E4
*ELSET, ELSET=SS7_E1
       1,       3,       4,       5,      46,      48,      50,      51
*ELSET, ELSET=SS7_E2
       2,       3,      41,      42,      44,      49,      50
*ELSET, ELSET=SS7_E3
      41,      43,      45,      52,      53
*ELSET, ELSET=SS7_E4
       4,       6,      23,      26,      29,      32,      35,      38,      47,      52
*SURFACE, NAME=SS7
SS7_E1, E1
SS7_E2, E2
SS7_E3, E3
SS7_E4, E4
**
********************************** P R O P E R T I E S ************************
*SHELL SECTION, ELSET=EB1, SECTION INTEGRATION=SIMPSON, MATERIAL=Default-Steel
1.000000e+00
**
*END PART
**
**
**
********************************** E N D   P A R T S **********************************
**
**
********************************** A S S E M B L Y ************************************
**
*ASSEMBLY, NAME=ASSEMBLY1
**
*INSTANCE, NAME=Part-Default_1, PART=Part-Default
*END INSTANCE
**
*END ASSEMBLY
**
**
**
*MATERIAL, NAME = Default-Steel
*ELASTIC, TYPE=ISOTROPIC
2.068000e+05, 2.900000e-01
*DENSITY
7.000000e-06
*CONDUCTIVITY,TYPE=ISO
4.500000e-02
*SPECIFIC HEAT
5.000000e+02
**
**
************************************** H I S T O R Y *************************************
**
*PREPRINT
**
**************************************** S T E P 1 ***************************************
*STEP,INC=100,NAME=Default Set
**
*STATIC
1, 1, 1e-05, 1
**
**
**
**
*END STEP
