*HEADING
cubit(/Users/jekozdon/codes/D2_sbp/meshes/flower.inp): 07/19/2018: 20:29:17
version: 15.2
**
********************************** P A R T S **********************************
*PART, NAME=Part-Default
**
********************************** N O D E S **********************************
*NODE, NSET=ALLNODES
       1,    4.000000e+00,   -4.000000e+00,    0.000000e+00
       2,    2.000000e+00,   -3.000000e+00,    0.000000e+00
       3,    1.921630e+00,   -5.126662e+00,    0.000000e+00
       4,    2.666667e+00,   -6.000000e+00,    0.000000e+00
       5,   -1.998401e-15,   -6.000000e+00,    0.000000e+00
       6,    1.084988e+00,   -6.375554e+00,    0.000000e+00
       7,    1.776357e-15,   -1.000000e+01,    0.000000e+00
       8,    1.333333e+00,   -8.000000e+00,    0.000000e+00
       9,    4.000000e+00,    0.000000e+00,    0.000000e+00
      10,    4.000000e+00,   -2.000000e+00,    0.000000e+00
      11,    6.000000e+00,   -2.047619e+00,    0.000000e+00
      12,    6.000000e+00,    0.000000e+00,    0.000000e+00
      13,    6.000000e+00,   -4.095238e+00,    0.000000e+00
      14,    5.111111e+00,   -6.142857e+00,    0.000000e+00
      15,    4.222222e+00,   -8.190476e+00,    0.000000e+00
      16,    3.333333e+00,   -1.023810e+01,    0.000000e+00
      17,   -3.996803e-15,   -1.200000e+01,    0.000000e+00
      18,    3.333333e+00,   -1.228571e+01,    0.000000e+00
      19,    0.000000e+00,   -1.500000e+01,    0.000000e+00
      20,    3.333333e+00,   -1.500000e+01,    0.000000e+00
** ... 53 like lines cut
**
********************************** E L E M E N T S ****************************
*ELEMENT, TYPE=S4R, ELSET=EB1
       1,       1,       2,       3,       4
       2,       2,       5,       6,       3
       3,       7,       8,       6,       5
       4,       8,       4,       3,       6
       5,       9,      10,      11,      12
       6,      10,       1,      13,      11
       7,       1,       4,      14,      13
       8,       4,       8,      15,      14
       9,       8,       7,      16,      15
      10,       7,      17,      18,      16
      11,      17,      19,      20,      18
      12,      12,      11,      21,      22
      13,      11,      13,      23,      21
      14,      13,      14,      24,      23
      15,      14,      15,      25,      24
      16,      15,      16,      26,      25
      17,      16,      18,      27,      26
      18,      18,      20,      28,      27
      19,      22,      21,      29,      30
      20,      21,      23,      31,      29
** ... 37 like lines cut
**
********************************** S I D E S E T S **********************************
*ELSET, ELSET=SS1_E2
      30,      33,      36,      39,      42,      45
*ELSET, ELSET=SS1_E3
      19,      20,      21,      22,      23,      24,      25
*SURFACE, NAME=SS1
SS1_E2, E2
SS1_E3, E3
*ELSET, ELSET=SS2_E1
      28,      29,      30,      53
*ELSET, ELSET=SS2_E2
      11,      18,      25,      55,      56
*ELSET, ELSET=SS2_E3
      27,      43,      44,      45
*ELSET, ELSET=SS2_E4
       5,      12,      19,      51
*SURFACE, NAME=SS2
SS2_E1, E1
SS2_E2, E2
SS2_E3, E3
SS2_E4, E4
*ELSET, ELSET=SS7_E1
       2,       3,       4,       7,       8,       9,      10,      11,      51,      54,
      55,      57
*ELSET, ELSET=SS7_E2
      46,      47,      49,      53,      54,      57
*ELSET, ELSET=SS7_E3
      46,      48,      50,      51,      56
*ELSET, ELSET=SS7_E4
       1,       3,      28,      31,      34,      37,      40,      43,      52
*SURFACE, NAME=SS7
SS7_E1, E1
SS7_E2, E2
SS7_E3, E3
SS7_E4, E4
**
********************************** P R O P E R T I E S ************************
*SHELL SECTION, ELSET=EB1, SECTION INTEGRATION=SIMPSON, MATERIAL=Default-Steel
1.000000e+00
**
*END PART
**
**
**
********************************** E N D   P A R T S **********************************
**
**
********************************** A S S E M B L Y ************************************
**
*ASSEMBLY, NAME=ASSEMBLY1
**
*INSTANCE, NAME=Part-Default_1, PART=Part-Default
*END INSTANCE
**
*END ASSEMBLY
**
**
**
*MATERIAL, NAME = Default-Steel
*ELASTIC, TYPE=ISOTROPIC
2.068000e+05, 2.900000e-01
*DENSITY
7.000000e-06
*CONDUCTIVITY,TYPE=ISO
4.500000e-02
*SPECIFIC HEAT
5.000000e+02
**
**
************************************** H I S T O R Y *************************************
**
*PREPRINT
**
**************************************** S T E P 1 ***************************************
*STEP,INC=100,NAME=Default Set
**
*STATIC
1, 1, 1e-05, 1
**
**
**
**
*END STEP
