*HEADING
cubit(/Users/jekozdon/codes/D2_sbp/meshes/flower_v3.inp): 08/14/2018: 15:25:33
version: 15.2
**
********************************** P A R T S **********************************
*PART, NAME=Part-Default
**
********************************** N O D E S **********************************
*NODE, NSET=ALLNODES
       1,    4.000000e+01,    0.000000e+00,    0.000000e+00
       2,    4.105990e+01,   -9.996109e+00,    0.000000e+00
       3,    5.033526e+01,   -9.996153e+00,    0.000000e+00
       4,    6.000000e+01,    0.000000e+00,    0.000000e+00
       5,    6.167851e+01,   -1.997508e+01,    0.000000e+00
       6,    4.996326e+01,   -1.998933e+01,    0.000000e+00
       7,    3.870824e+01,   -1.998692e+01,    0.000000e+00
       8,    4.912992e+01,   -2.995016e+01,    0.000000e+00
       9,    5.672526e+01,   -3.990373e+01,    0.000000e+00
      10,    5.875000e+01,   -8.000000e+01,    0.000000e+00
      11,    8.000000e+01,   -8.000000e+01,    0.000000e+00
      12,    8.000000e+01,   -6.000000e+01,    0.000000e+00
      13,    6.111034e+01,   -5.988156e+01,    0.000000e+00
      14,    3.979338e+01,   -3.990269e+01,    0.000000e+00
      15,    4.069151e+01,   -2.995643e+01,    0.000000e+00
      16,    8.000000e+01,   -4.000000e+01,    0.000000e+00
      17,    4.008176e+01,   -4.965179e+01,    0.000000e+00
      18,    4.858424e+01,   -4.972834e+01,    0.000000e+00
      19,    4.893241e+01,   -5.963886e+01,    0.000000e+00
      20,    8.000000e+01,   -2.000000e+01,    0.000000e+00
** ... 238 like lines cut
**
********************************** E L E M E N T S ****************************
*ELEMENT, TYPE=S4R, ELSET=EB1
       1,       1,       2,       3,       4
       2,       5,       4,       3,       6
       3,       7,       6,       3,       2
       4,       5,       6,       8,       9
       5,      10,      11,      12,      13
       6,      14,       9,       8,      15
       7,       7,      15,       8,       6
       8,      13,      12,      16,       9
       9,      14,      17,      18,       9
      10,      13,       9,      18,      19
      11,       9,      16,      20,       5
      12,      21,      19,      18,      17
      13,      13,      19,      22,      10
      14,       5,      20,      23,       4
      15,      24,      25,      26,       1
      16,       2,       1,      26,      27
      17,      28,      27,      26,      25
      18,       2,      27,      29,       7
      19,      30,       7,      29,      31
      20,      28,      31,      29,      27
** ... 216 like lines cut
**
********************************** S I D E S E T S **********************************
*ELSET, ELSET=SS1_E2
       5,       8,      11,      14,      80,      83,      86,      89
*SURFACE, NAME=SS1
SS1_E2, E2
*ELSET, ELSET=SS2_E1
       5,      32,      38,      66,      80,      84,     109,     116,     145,     196,
     197,     198,     199,     200,     201,     229,     236
*ELSET, ELSET=SS2_E2
     168,     176,     184,     192,     195,     233,     235
*ELSET, ELSET=SS2_E3
      14,      89
*ELSET, ELSET=SS2_E4
       1,      15,      36,      63,      78,      87,     117,     158
*SURFACE, NAME=SS2
SS2_E1, E1
SS2_E2, E2
SS2_E3, E3
SS2_E4, E4
*ELSET, ELSET=SS7_E1
     160,     193,     194,     195,     212,     213,     214,     231,     232,     233,
     234
*ELSET, ELSET=SS7_E2
     155,     156,     205,     221,     222,     223,     229,     230,     231,     236
*ELSET, ELSET=SS7_E3
     155,     157,     185,     186,     187,     188,     189,     190,     191,     192,
     193,     194,     195
*ELSET, ELSET=SS7_E4
     193,     196
*SURFACE, NAME=SS7
SS7_E1, E1
SS7_E2, E2
SS7_E3, E3
SS7_E4, E4
*ELSET, ELSET=SS8_E1
      31,      43,      68,      78,     139
*ELSET, ELSET=SS8_E4
      32,      44,      81,      92,     136
*SURFACE, NAME=SS8
SS8_E1, E1
SS8_E4, E4
**
********************************** P R O P E R T I E S ************************
*SHELL SECTION, ELSET=EB1, SECTION INTEGRATION=SIMPSON, MATERIAL=Default-Steel
1.000000e+00
**
*END PART
**
**
**
********************************** E N D   P A R T S **********************************
**
**
********************************** A S S E M B L Y ************************************
**
*ASSEMBLY, NAME=ASSEMBLY1
**
*INSTANCE, NAME=Part-Default_1, PART=Part-Default
*END INSTANCE
**
*END ASSEMBLY
**
**
**
*MATERIAL, NAME = Default-Steel
*ELASTIC, TYPE=ISOTROPIC
2.068000e+05, 2.900000e-01
*DENSITY
7.000000e-06
*CONDUCTIVITY,TYPE=ISO
4.500000e-02
*SPECIFIC HEAT
5.000000e+02
**
**
************************************** H I S T O R Y *************************************
**
*PREPRINT
**
**************************************** S T E P 1 ***************************************
*STEP,INC=100,NAME=Default Set
**
*STATIC
1, 1, 1e-05, 1
**
**
**
**
*END STEP
