*HEADING
cubit(/Users/jekozdon/codes/D2_sbp/meshes/fracture_network.inp): 07/19/2018: 15:
version: 15.2
**
********************************** P A R T S **********************************
*PART, NAME=Part-Default
**
********************************** N O D E S **********************************
*NODE, NSET=ALLNODES
       1,    4.603397e+00,    5.047643e+01,    0.000000e+00
       2,    3.005218e+00,    4.999771e+01,    0.000000e+00
       3,    3.504728e+00,    4.888711e+01,    0.000000e+00
       4,    4.691858e+00,    4.865791e+01,    0.000000e+00
       5,    1.407040e+00,    4.951900e+01,    0.000000e+00
       6,    2.828199e+00,    4.800803e+01,    0.000000e+00
       7,    4.780320e+00,    4.683940e+01,    0.000000e+00
       8,    2.955801e+00,    5.208935e+01,    0.000000e+00
       9,    1.623280e+00,    5.272523e+01,    0.000000e+00
      10,    4.448920e+00,    5.365201e+01,    0.000000e+00
      11,    4.294444e+00,    5.682759e+01,    0.000000e+00
      12,    5.680837e+00,    4.829345e+01,    0.000000e+00
      13,    6.433353e+00,    4.904885e+01,    0.000000e+00
      14,    5.890106e+00,    4.716617e+01,    0.000000e+00
      15,    7.241682e+00,    4.737733e+01,    0.000000e+00
      16,    5.915818e+00,    4.611177e+01,    0.000000e+00
      17,    6.786357e+00,    4.571715e+01,    0.000000e+00
      18,    5.037345e+00,    4.544871e+01,    0.000000e+00
      19,    5.961699e+00,    4.380373e+01,    0.000000e+00
      20,    7.599632e+00,    4.978409e+01,    0.000000e+00
** ... 5961 like lines cut
**
********************************** E L E M E N T S ****************************
*ELEMENT, TYPE=S4R, ELSET=EB1
       1,       1,       2,       3,       4
       2,       2,       5,       6,       3
       3,       6,       7,       4,       3
       4,       5,       2,       8,       9
       5,       2,       1,      10,       8
       6,      10,      11,       9,       8
       7,       1,       4,      12,      13
       8,       4,       7,      14,      12
       9,      14,      15,      13,      12
      10,      15,      14,      16,      17
      11,      14,       7,      18,      16
      12,      18,      19,      17,      16
      13,       1,      13,      20,      21
      14,      13,      15,      22,      20
      15,      22,      23,      21,      20
      16,       7,       6,      24,      25
      17,       6,       5,      26,      24
      18,      26,      27,      25,      24
      19,      23,      22,      28,      29
      20,      22,      15,      30,      28
** ... 5920 like lines cut
**
********************************** S I D E S E T S **********************************
*ELSET, ELSET=SS1_E1
    5508,    5520,    5718,    5826,    5838,    5844
*ELSET, ELSET=SS1_E2
    5061,    5094,    5163,    5274,    5499,    5507,    5517,    5519,    5529,    5586,
    5715,    5717,    5739,    5748,    5769,    5781,    5790,    5825,    5837,    5843
*ELSET, ELSET=SS1_E4
    5059,    5092,    5161,    5272,    5497,    5515,    5527,    5584,    5713,    5737,
    5746,    5767,    5779,    5788
*SURFACE, NAME=SS1
SS1_E1, E1
SS1_E2, E2
SS1_E4, E4
*ELSET, ELSET=SS2_E1
       1,       2,       4,       5,       6,       7,       8,      22,      23,      25,
      26,      28,      29,      31,      32,      34,      35,      37,      38,      40,
      41,      43,      44,      46,      47,      49,      50,      52,      53,      55,
      56,      58,      59,      61,      62,      64,      65,      67,      68,      70,
      71,      73,      74,      76,      77,      79,      80,      82,      83,      85,
      86,      88,      89,      91,      92,      94,      95,      97,      98,     100,
     101,     106,     107,     109,     110,     112,     113,     115,     116,     121,
     122,     124,     125,     127,     128,     130,     131,     133,     134,     136,
     137,     139,     140,     142,     143,     145,     146,     148,     149,     151,
     152,     154,     155,     157,     158,     160,     161,     163,     164,     166,
     167,     169,     170,     172,     173,     175,     176,     178,     179,     181,
     182,     184,     185,     187,     188,     190,     191,     193,     194,     196,
     197,     199,     200,     202,     203,     205,     206,     208,     209,     211,
     212,     217,     218,     223,     224,     226,     227,     231,     232,     233,
     235,     236,     238,     239,     241,     242,     244,     245,     247,     248,
     250,     251,     253,     254,     256,     257,     264,     265,     266,     268,
     269,     271,     272,     277,     278,     280,     281,     283,     284,     811,
     812,     813,    4971,    5046,    5073,    5244,    5319,    5355,    5667,    5676,
    5820,    5853,    5862,    5868,    5874,    5880,    5886,    5887,    5888,    5892,
    5896,    5897,    5904
*ELSET, ELSET=SS2_E2
       3,       5,      15,     105,     230,     263,     812,    4970,    5045,    5072,
    5243,    5318,    5354,    5481,    5547,    5637,    5649,    5666,    5675,    5679,
    5697,    5745,    5775,    5793,    5819,    5852,    5861,    5867,    5873,    5879,
    5885,    5891,    5895,    5903
*ELSET, ELSET=SS2_E4
       1,      13,     103,    5479,    5545,    5635,    5647,    5677,    5695,    5743,
    5773,    5791,    5893
*SURFACE, NAME=SS2
SS2_E1, E1
SS2_E2, E2
SS2_E4, E4
**
********************************** P R O P E R T I E S ************************
*SHELL SECTION, ELSET=EB1, SECTION INTEGRATION=SIMPSON, MATERIAL=Default-Steel
1.000000e+00
**
*END PART
**
**
**
********************************** E N D   P A R T S **********************************
**
**
********************************** A S S E M B L Y ************************************
**
*ASSEMBLY, NAME=ASSEMBLY1
**
*INSTANCE, NAME=Part-Default_1, PART=Part-Default
*END INSTANCE
**
*END ASSEMBLY
**
**
**
*MATERIAL, NAME = Default-Steel
*ELASTIC, TYPE=ISOTROPIC
2.068000e+05, 2.900000e-01
*DENSITY
7.000000e-06
*CONDUCTIVITY,TYPE=ISO
4.500000e-02
*SPECIFIC HEAT
5.000000e+02
**
**
************************************** H I S T O R Y *************************************
**
*PREPRINT
**
**************************************** S T E P 1 ***************************************
*STEP,INC=100,NAME=Default Set
**
*STATIC
1, 1, 1e-05, 1
**
**
**
**
*END STEP
