*HEADING
cubit(/Users/jekozdon/codes/D2_sbp/seas/meshes/BP1_v1.inp): 11/26/2019: 10:03:10
version: 15.2
**
********************************** P A R T S **********************************
*PART, NAME=Part-Default
**
********************************** N O D E S **********************************
*NODE, NSET=ALLNODES
       1,    0.000000e+00,   -2.153846e+01,    0.000000e+00
       2,    0.000000e+00,   -1.846154e+01,    0.000000e+00
       3,   -5.078343e+00,   -1.608289e+01,    0.000000e+00
       4,   -6.161683e+00,   -1.952290e+01,    0.000000e+00
       5,    0.000000e+00,   -2.461538e+01,    0.000000e+00
       6,   -6.857630e+00,   -2.323516e+01,    0.000000e+00
       7,    0.000000e+00,   -2.769231e+01,    0.000000e+00
       8,   -7.459722e+00,   -2.712287e+01,    0.000000e+00
       9,    0.000000e+00,   -3.076923e+01,    0.000000e+00
      10,   -7.599875e+00,   -3.112550e+01,    0.000000e+00
      11,    0.000000e+00,   -3.384615e+01,    0.000000e+00
      12,   -7.357269e+00,   -3.515141e+01,    0.000000e+00
      13,    0.000000e+00,   -3.692308e+01,    0.000000e+00
      14,   -6.678565e+00,   -3.907635e+01,    0.000000e+00
      15,    0.000000e+00,   -4.000000e+01,    0.000000e+00
      16,   -5.456285e+00,   -4.264966e+01,    0.000000e+00
      17,    0.000000e+00,   -4.300000e+01,    0.000000e+00
      18,   -3.730545e+00,   -4.553135e+01,    0.000000e+00
      19,    0.000000e+00,   -5.110366e+01,    0.000000e+00
      20,   -5.696193e+00,   -5.075854e+01,    0.000000e+00
** ... 247 like lines cut
**
********************************** E L E M E N T S ****************************
*ELEMENT, TYPE=S4R, ELSET=EB1
       1,       1,       2,       3,       4
       2,       5,       1,       4,       6
       3,       7,       5,       6,       8
       4,       9,       7,       8,      10
       5,      11,       9,      10,      12
       6,      13,      11,      12,      14
       7,      15,      13,      14,      16
       8,      17,      15,      16,      18
       9,      19,      17,      18,      20
      10,      21,      19,      20,      22
      11,      23,      21,      22,      24
      12,      25,      23,      24,      26
      13,      27,      25,      26,      28
      14,      29,      27,      28,      30
      15,      31,      29,      30,      32
      16,      33,      31,      32,      34
      17,       3,       2,      35,      36
      18,       8,       6,      37,      38
      19,      10,       8,      38,      39
      20,      20,      18,      16,      40
** ... 220 like lines cut
**
********************************** S I D E S E T S **********************************
*ELSET, ELSET=SS1_E1
      52,      53,      54,      55,      56,      57,     172,     173,     174,     175,
     176,     177
*ELSET, ELSET=SS1_E2
      40,     171
*ELSET, ELSET=SS1_E4
      51,     160
*SURFACE, NAME=SS1
SS1_E1, E1
SS1_E2, E2
SS1_E4, E4
*ELSET, ELSET=SS2_E1
      40,      41,      42,      43,      44,      45,      46,      47,      48,      49,
      50,      51,     160,     161,     162,     163,     164,     165,     166,     167,
     168,     169,     170,     171
*ELSET, ELSET=SS2_E2
      29,     120,     136,     145,     159
*ELSET, ELSET=SS2_E3
     112,     232
*ELSET, ELSET=SS2_E4
      16,      25,      39,     149,     240
*SURFACE, NAME=SS2
SS2_E1, E1
SS2_E2, E2
SS2_E3, E3
SS2_E4, E4
*ELSET, ELSET=SS7_E1
       8,       9,      10,      11,      12,      13,      14,      15,      16,     128,
     129,     130,     131,     132,     133,     134,     135,     136
*SURFACE, NAME=SS7
SS7_E1, E1
*ELSET, ELSET=SS8_E1
       1,       2,       3,       4,       5,       6,       7,     104,     113,     114,
     121,     122,     123,     124,     125,     126,     127,     224,     233,     234
*ELSET, ELSET=SS8_E2
      17,     111,     112
*ELSET, ELSET=SS8_E4
     137,     231,     232
*SURFACE, NAME=SS8
SS8_E1, E1
SS8_E2, E2
SS8_E4, E4
**
********************************** P R O P E R T I E S ************************
*SHELL SECTION, ELSET=EB1, SECTION INTEGRATION=SIMPSON, MATERIAL=Default-Steel
1.000000e+00
**
*END PART
**
**
**
********************************** E N D   P A R T S **********************************
**
**
********************************** A S S E M B L Y ************************************
**
*ASSEMBLY, NAME=ASSEMBLY1
**
*INSTANCE, NAME=Part-Default_1, PART=Part-Default
*END INSTANCE
**
*END ASSEMBLY
**
**
**
*MATERIAL, NAME = Default-Steel
*ELASTIC, TYPE=ISOTROPIC
2.068000e+05, 2.900000e-01
*DENSITY
7.000000e-06
*CONDUCTIVITY,TYPE=ISO
4.500000e-02
*SPECIFIC HEAT
5.000000e+02
**
**
************************************** H I S T O R Y *************************************
**
*PREPRINT
**
**************************************** S T E P 1 ***************************************
*STEP,INC=100,NAME=Default Set
**
*STATIC
1, 1, 1e-05, 1
**
**
**
**
*END STEP
